6
241
C         -1.21310       -0.68840        0.00000
C         -1.20280        0.70640        0.00010
C          0.01040        1.39480       -0.00010
C          1.21310        0.68840        0.00000
C          1.20280       -0.70630        0.00000
C         -0.01030       -1.39480        0.00000
